29
DATA_FROM_JN\CN_P2.xyz
C       -0.74328       -0.89904       0.24877
C       -1.99590       -1.51109       0.23758
C       -3.16315       -0.79456       0.00008
C       -3.08691       0.56931       -0.24177
C       -1.85180       1.20551       -0.21902
C       -0.67888       0.49224       0.03666
H       -2.05324       -2.58178       0.39656
H       -3.98400       1.14287       -0.43868
H       -1.80336       2.27202       -0.39143
N       0.59348       1.13347       0.07333
C       0.76464       2.30031       -0.77724
H       0.25937       3.19956       -0.39448
H       1.83015       2.52697       -0.84687
H       0.38822       2.09020       -1.77803
C       1.11103       1.36827       1.42107
H       0.61195       2.22527       1.89578
H       2.18373       1.55570       1.37281
H       0.95337       0.49360       2.04638
C       0.49660       -1.74848       0.39568
H       0.18280       -2.78580       0.51600
H       1.06850       -1.49672       1.29142
C       1.45432       -1.64716       -0.81312
H       2.01047       -2.58591       -0.90558
H       0.89298       -1.50634       -1.73841
C       2.50067       -0.56419       -0.66624
H       2.61891       0.12091       -1.52833
O       3.24512       -0.49118       0.28309
C       -4.52328       -1.51668       -0.01417
N       -5.53596       -2.05432       -0.02478
END
